clear
New Circuit.Powerflow
Edit Vsource.Source BasekV=13.2
New Transformer.1791128 Buses=[SourceBus,LS_1791128] Conns=[Wye,Wye] kVs=[13.2,0.12] kVA=75.0
New Transformer.1791105 Buses=[SourceBus,LS_1791105] Conns=[Wye,Wye] kVs=[13.2,0.12] kVA=75.0
New Load.1768333_C Bus1=LS_1791105.3 kV=0.12 kW=1e10 PF=.95
New Load.1768342_C Bus1=LS_1791128.3 kV=0.12 kW=1e10 PF=.95
